/*--------------------------------*- C++ -*----------------------------------*\
| =========                 |                                                 |
| \\      /  F ield         | OpenFOAM: The Open Source CFD Toolbox           |
|  \\    /   O peration     | Version:  v2012                                 |
|   \\  /    A nd           | Website:  www.openfoam.com                      |
|    \\/     M anipulation  |                                                 |
\*---------------------------------------------------------------------------*/
FoamFile
{
    version     2.0;
    format      ascii;
    class       volVectorField;
    location    "0";
    object      U;
}
// * * * * * * * * * * * * * * * * * * * * * * * * * * * * * * * * * * * * * //

dimensions      [0 1 -1 0 0 0 0];


internalField   uniform (0 0 0);

boundaryField
{
    symmetry_1-driver
    {
        type            symmetryPlane;
    }
    symmetry_1-driven
    {
        type            symmetryPlane;
    }
    symmetry_2-driver
    {
        type            symmetryPlane;
    }
    symmetry_2-driven
    {
        type            symmetryPlane;
    }
    wall-driver
    {
        type            zeroGradient;
    }
    wall-driven
    {
        type            zeroGradient;
    }
    contact_region-src
    {
        type            cyclicAMI;
        value           uniform (0 0 0);
    }
    contact_region-trg
    {
        type            cyclicAMI;
        value           uniform (0 0 0);
    }
    contact_region_2-src
    {
        type            cyclicAMI;
        value           uniform (0 0 0);
    }
    contact_region_2-trg
    {
        type            cyclicAMI;
        value           uniform (0 0 0);
    }
    contact_region_3-src
    {
        type            cyclicAMI;
        value           uniform (0 0 0);
    }
    contact_region_3-trg
    {
        type            cyclicAMI;
        value           uniform (0 0 0);
    }
    contact_region_4-src
    {
        type            cyclicAMI;
        value           uniform (0 0 0);
    }
    contact_region_4-trg
    {
        type            cyclicAMI;
        value           uniform (0 0 0);
    }
    contact_region_5-src
    {
        type            cyclicAMI;
        value           uniform (0 0 0);
    }
    contact_region_5-trg
    {
        type            cyclicAMI;
        value           uniform (0 0 0);
    }
}


// ************************************************************************* //
